    3

 H   -2.4165936061    0.0000000000    0.0000000000
 H    0.0000000000    0.0000000000    0.0000000000
 H    0.8243346657    0.0000000000    0.0000000000
    3

 H   -2.0121701336    0.0000000000    0.0000000000
 H    0.0000000000    0.0000000000    0.0000000000
 H    0.8297087947    0.0000000000    0.0000000000
    3

 H   -1.6374057449    0.0000000000    0.0000000000
 H    0.0000000000    0.0000000000    0.0000000000
 H    0.8471490498    0.0000000000    0.0000000000
    3

 H   -1.3289687495    0.0000000000    0.0000000000
 H    0.0000000000    0.0000000000    0.0000000000
 H    0.8974923510    0.0000000000    0.0000000000
    3

 H   -1.0828777168    0.0000000000    0.0000000000
 H    0.0000000000    0.0000000000    0.0000000000
 H    1.0226631555    0.0000000000    0.0000000000
    3

 H   -0.8877274327    0.0000000000    0.0000000000
 H    0.0000000000    0.0000000000    0.0000000000
 H    1.3699223902    0.0000000000    0.0000000000
    3

 H   -0.8350226695    0.0000000000    0.0000000000
 H    0.0000000000    0.0000000000    0.0000000000
 H    1.8446161238    0.0000000000    0.0000000000
    3

 H   -0.8243346657    0.0000000000    0.0000000000
 H    0.0000000000    0.0000000000    0.0000000000
 H    2.4165936061    0.0000000000    0.0000000000
