    5

Al    0.0000000000    0.0000000000    0.0000000000
Al    2.8634511297    0.0000000000    0.0000000000
Al    0.0000000000    2.8634511297    0.0000000000
Al    2.8634511297    2.8634511297    0.0000000000
 H    0.0000000000    0.0000000000    1.6460341083
    5

Al    0.0000000000    0.0000000000    0.0000000000
Al    2.8634511297    0.0000000000    0.0000000000
Al    0.0000000000    2.8634511297    0.0000000000
Al    2.8634511297    2.8634511297    0.0000000000
 H    0.7423394543    0.7423394543    1.3108758296
    5

Al    0.0000000000    0.0000000000    0.0000000000
Al    2.8634511297    0.0000000000    0.0000000000
Al    0.0000000000    2.8634511297    0.0000000000
Al    2.8634511297    2.8634511297    0.0000000000
 H    1.4317741236    1.4317741236    0.7728836446
    5

Al    0.0000000000    0.0000000000    0.0000000000
Al    2.8634511297    0.0000000000    0.0000000000
Al    0.0000000000    2.8634511297    0.0000000000
Al    2.8634511297    2.8634511297    0.0000000000
 H    2.1210280896    2.1210280896    1.3108014290
    5

Al    0.0000000000    0.0000000000    0.0000000000
Al    2.8634511297    0.0000000000    0.0000000000
Al    0.0000000000    2.8634511297    0.0000000000
Al    2.8634511297    2.8634511297    0.0000000000
 H    2.8634511297    2.8634511297    1.6460341083
